[filtering]
ignore=
  github.com
  ^/img/
  # Explicitly allowed URLs that cause linkchecker to fail, but do work when manually checked. 
  https://releases.crossplane.io/stable/
  https://demoa.heimdalldata.com/docs/basics/install.html
  https://docs.aviatrix.com/documentation/latest/release-notes/copilot-image-release-notes/copilot-image-release-notes.html#copilot-image-version-2-0-4-06-july-2022-aws-arm
  https://docs.aviatrix.com/documentation/latest/index.html
  https://www.bytebase.com/docs/cli/overview/#install-bb
  https://www.cloudbees.com/capabilities/continuous-integration
  https://dolphinscheduler.apache.org/en-us/docs/3.2.2
  https://www.drupal.org/project/drupal/releases
  https://www.drupal.org/docs/official_docs/evaluator-guide
  https://www.ansys.com/products/fluids/ansys-fluent
  https://www.ansys.com/training-center/course-catalog/fluids/ansys-fluent-getting-started-basics
  https://www.ansys.com/products/structures/ansys-ls-dyna
  https://lsdyna.ansys.com/download-install-overview/
  https://www.ansys.com/products/semiconductors/ansys-redhawk-sc
  https://rafay.co/platform/kubernetes-manager/
  https://docs.rafay.co/releasenotes/2021/#v153
  https://docs.rafay.co/learn/quickstart/eks/graviton/workload/
  https://blogs.oracle.com/ai-and-datascience/post/inference-rag-cpus-efficient-generative-ai
  https://blogs.oracle.com/opal/post/oracle-instant-client-for-linux-arm-aarch64
  https://blogs.oracle.com/developers/post/getting-started-with-ruby-and-ruby-on-rails-on-oci
  https://blogs.oracle.com/javamagazine/post/java-arm-runtime-switches-benchmarks
  https://blogs.oracle.com/cloud-infrastructure/post/arm-based-cloud-computing-is-the-next-big-thing-introducing-arm-on-oracle-cloud-infrastructure
  https://www.sap.com/india/products/technology-platform/hana.html
  https://gmplib.org/manual/Installing-GMP

